* Q2SCR573D3 NPN BJT model
* Model Generated by ROHM
* All Rights Reserved
* Commercial Use or
* Resale Restricted
* Date: 2013/04/22
.MODEL Q2SCR573D3 NPN
+ IS=1.0000E-12
+ BF=305.78
+ VAF=100.77
+ IKF=15
+ ISE=9.2726E-12
+ NE=1.9977
+ BR=55.087
+ VAR=30
+ IKR=4.3418
+ ISC=11.133E-12
+ NC=1.4838
+ NK=1.0139
+ RE=35.000E-3
+ RB=.50911
+ RC=35.473E-3
+ CJE=466.80E-12
+ VJE=.77265
+ MJE=.35972
+ CJC=69.345E-12
+ VJC=.56296
+ MJC=.42599
+ TF=434.78E-12
+ XTF=400.18
+ VTF=196.30
+ ITF=82.816
+ TR=14.336E-9
+ XTB=1.5000