Version 4
SHEET 1 3004 788
WIRE 2080 -112 2032 -112
WIRE 2176 -112 2144 -112
WIRE 2032 -16 2032 -112
WIRE 2064 -16 2032 -16
WIRE 2176 -16 2176 -112
WIRE 2176 -16 2144 -16
WIRE 992 16 880 16
WIRE 1040 16 992 16
WIRE 1408 16 1328 16
WIRE 1648 16 1408 16
WIRE 1648 48 1648 16
WIRE 880 64 880 16
WIRE 992 80 992 16
WIRE 1408 80 1408 16
WIRE 2032 96 2032 -16
WIRE 2032 96 1920 96
WIRE 2064 96 2032 96
WIRE 2176 112 2176 -16
WIRE 2176 112 2128 112
WIRE 2320 112 2176 112
WIRE 2416 112 2384 112
WIRE 2528 112 2416 112
WIRE 2064 128 2032 128
WIRE 2416 160 2416 112
WIRE 1648 176 1648 128
WIRE 1920 176 1920 96
WIRE 2032 176 2032 128
WIRE 880 208 880 144
WIRE 992 208 992 144
WIRE 992 208 880 208
WIRE 1184 208 1184 176
WIRE 1184 208 992 208
WIRE 1408 208 1408 144
WIRE 1408 208 1184 208
WIRE 1184 272 1184 208
WIRE 1648 272 1648 240
WIRE 1920 288 1920 256
WIRE 1360 320 1312 320
WIRE 1472 320 1440 320
WIRE 1584 320 1552 320
WIRE 2416 320 2416 240
WIRE 2688 384 2272 384
WIRE 1312 400 1312 320
WIRE 2688 416 2688 384
WIRE 2816 416 2688 416
WIRE 1648 448 1648 368
WIRE 2688 480 2688 416
WIRE 2688 480 2640 480
WIRE 1760 496 1648 496
WIRE 1808 496 1760 496
WIRE 2176 496 2096 496
WIRE 2272 496 2272 384
WIRE 2272 496 2176 496
WIRE 1648 544 1648 496
WIRE 2384 544 2256 544
WIRE 1760 560 1760 496
WIRE 2176 560 2176 496
WIRE 2256 560 2256 544
WIRE 2384 608 2352 608
WIRE 2688 608 2640 608
WIRE 2352 640 2352 608
WIRE 2688 640 2688 608
WIRE 2256 672 2256 624
WIRE 2384 672 2256 672
WIRE 2768 672 2640 672
WIRE 2816 672 2768 672
WIRE 1648 688 1648 624
WIRE 1760 688 1760 624
WIRE 1760 688 1648 688
WIRE 1952 688 1952 656
WIRE 1952 688 1760 688
WIRE 2176 688 2176 624
WIRE 2176 688 1952 688
WIRE 1952 752 1952 688
WIRE 2768 768 2768 736
FLAG 1648 448 0
FLAG 1312 400 0
FLAG 2096 80 V+
FLAG 2096 144 V-
FLAG 2032 176 0
FLAG 1920 288 -V
FLAG 2528 112 Vo
FLAG 2416 320 0
FLAG 1184 272 0
FLAG 1408 16 5V
FLAG 992 16 9V
FLAG 1952 752 0
FLAG 2176 496 5V
FLAG 1760 496 9V
FLAG 2352 640 0
FLAG 2816 416 V+
FLAG 2688 640 0
FLAG 2768 768 0
FLAG 2816 672 V-
SYMBOL res 1632 32 R0
SYMATTR InstName RC
SYMATTR Value 100
SYMBOL voltage 880 48 R0
WINDOW 0 -32 56 VBottom 2
WINDOW 3 32 56 VTop 2
WINDOW 123 0 0 Left 0
WINDOW 39 0 0 Left 0
SYMATTR InstName 9V_Battery
SYMATTR Value 9
SYMBOL npn 1584 272 R0
SYMATTR InstName Q1
SYMATTR Value BC337-25
SYMBOL res 1568 304 R90
WINDOW 0 0 56 VBottom 2
WINDOW 3 32 56 VTop 2
SYMATTR InstName RB
SYMATTR Value 4k
SYMBOL res 2160 -32 R90
WINDOW 0 0 56 VBottom 2
WINDOW 3 32 56 VTop 2
SYMATTR InstName RF
SYMATTR Value 560k
SYMBOL cap 2144 -128 R90
WINDOW 0 0 32 VBottom 2
WINDOW 3 32 32 VTop 2
SYMATTR InstName CF
SYMATTR Value 15p
SYMBOL Opamps\\opamp2 2096 48 R0
SYMATTR InstName OP-Amp
SYMATTR Value LMX58_LM2904
SYMBOL current 1920 176 R0
WINDOW 123 0 0 Left 0
WINDOW 39 0 0 Left 0
SYMATTR InstName Pd
SYMATTR Value 9µ
SYMBOL LED 1632 176 R0
SYMATTR InstName LED
SYMATTR Value D_ideal
SYMBOL cap 2384 96 R90
WINDOW 0 0 32 VBottom 2
WINDOW 3 32 32 VTop 2
SYMATTR InstName C1
SYMATTR Value 0.1µ
SYMBOL res 2400 144 R0
SYMATTR InstName R1
SYMATTR Value 100k
SYMBOL voltage 1456 320 R90
WINDOW 0 -32 56 VBottom 2
WINDOW 3 32 56 VTop 2
WINDOW 123 0 0 Left 0
WINDOW 39 0 0 Left 0
SYMATTR InstName V2
SYMATTR Value SINE(0 5 1000)
SYMBOL polcap 1392 80 R0
SYMATTR InstName C2
SYMATTR Value 22µ
SYMBOL PowerProducts\\LT3014B 1184 48 R0
SYMATTR InstName U2
SYMBOL cap 976 80 R0
SYMATTR InstName C3
SYMATTR Value 0.47µ
SYMBOL voltage 1648 528 R0
WINDOW 0 -32 56 VBottom 2
WINDOW 3 32 56 VTop 2
WINDOW 123 0 0 Left 0
WINDOW 39 0 0 Left 0
SYMATTR InstName 9V_Battery
SYMATTR Value 9
SYMBOL polcap 2160 560 R0
SYMATTR InstName C4
SYMATTR Value 22µ
SYMBOL PowerProducts\\LT3014B 1952 528 R0
SYMATTR InstName U1
SYMBOL cap 1744 560 R0
SYMATTR InstName C5
SYMATTR Value 0.47µ
SYMBOL PowerProducts\\LTC1044 2512 576 R0
SYMATTR InstName U3
SYMBOL polcap 2240 560 R0
SYMATTR InstName C6
SYMATTR Value 10µ
SYMBOL polcap 2784 736 R180
WINDOW 0 24 57 Left 2
WINDOW 3 24 8 Left 2
SYMATTR InstName C7
SYMATTR Value 10µ
TEXT 2240 32 Left 2 !.tran 0 5 0 1
TEXT 2240 -48 Left 2 !.model D_ideal D(Ron=0.1n Roff=1G Vfwd=3)
TEXT 2240 -8 Left 2 !.lib LMx58_LM2904.CIR
TEXT 912 -56 Left 2 ;LM2940CT-5 5V 1A Low Voltage Dropout Regulator
TEXT 1680 424 Left 2 ;LM2940CT-5 5V 1A Low Voltage Dropout Regulator
TEXT 1952 720 Left 2 ;TC1044SEPA Charge Pump Switching Regulator Negative Fixed -Vin
